49806720
     RDKit          3D

 70 75  0  0  0  0  0  0  0  0999 V2000
    6.8872    2.9719    0.3008 O   0  0  0  0  0  0  0  0  0  0  0  0
   -4.3300   -2.6695    0.2479 O   0  0  0  0  0  0  0  0  0  0  0  0
    1.8621   -0.8076    0.1499 N   0  0  0  0  0  0  0  0  0  0  0  0
    5.5296    0.4832   -0.0754 N   0  0  0  0  0  0  0  0  0  0  0  0
   -5.1601    1.8079   -0.4462 N   0  0  0  0  0  0  0  0  0  0  0  0
  -11.1176    1.4870   -0.5611 N   0  0  0  0  0  0  0  0  0  0  0  0
    4.7613   -0.7451    0.2868 C   0  0  0  0  0  0  0  0  0  0  0  0
    3.8762   -0.6392    1.5594 C   0  0  0  0  0  0  0  0  0  0  0  0
    4.0096   -1.3289   -0.9319 C   0  0  0  0  0  0  0  0  0  0  0  0
    2.4538   -0.1257    1.3000 C   0  0  0  0  0  0  0  0  0  0  0  0
    2.5898   -0.7885   -1.1193 C   0  0  0  0  0  0  0  0  0  0  0  0
   -2.6732    1.2354   -0.2965 C   0  0  0  0  0  0  0  0  0  0  0  0
    0.4406   -1.0014    0.1192 C   0  0  0  0  0  0  0  0  0  0  0  0
   -1.8000   -0.0262   -0.0865 C   0  0  0  0  0  0  0  0  0  0  0  0
   -4.1566    0.9098   -0.2834 C   0  0  0  0  0  0  0  0  0  0  0  0
    4.8026    1.7623    0.0414 C   0  0  0  0  0  0  0  0  0  0  0  0
    6.8142    0.5677    0.6495 C   0  0  0  0  0  0  0  0  0  0  0  0
   -0.3962    0.1052   -0.0622 C   0  0  0  0  0  0  0  0  0  0  0  0
   -2.3559   -1.3269    0.0878 C   0  0  0  0  0  0  0  0  0  0  0  0
   -0.1135   -2.2853    0.2664 C   0  0  0  0  0  0  0  0  0  0  0  0
   -4.6689   -0.3585   -0.1063 C   0  0  0  0  0  0  0  0  0  0  0  0
   -2.3393    1.8693   -1.6630 C   0  0  0  0  0  0  0  0  0  0  0  0
   -2.3989    2.2475    0.8359 C   0  0  0  0  0  0  0  0  0  0  0  0
   -1.5067   -2.4333    0.2653 C   0  0  0  0  0  0  0  0  0  0  0  0
   -3.8221   -1.5267    0.0866 C   0  0  0  0  0  0  0  0  0  0  0  0
    5.6942    2.9053   -0.4576 C   0  0  0  0  0  0  0  0  0  0  0  0
    7.6195    1.7720    0.1432 C   0  0  0  0  0  0  0  0  0  0  0  0
   -6.0436   -0.2365   -0.1611 C   0  0  0  0  0  0  0  0  0  0  0  0
    0.7581   -3.4982    0.4893 C   0  0  0  0  0  0  0  0  0  0  0  0
   -6.3012    1.0973   -0.3691 C   0  0  0  0  0  0  0  0  0  0  0  0
   -7.0713   -1.1739   -0.0469 C   0  0  0  0  0  0  0  0  0  0  0  0
   -7.6029    1.5829   -0.4783 C   0  0  0  0  0  0  0  0  0  0  0  0
    1.0121   -3.7200    1.9761 C   0  0  0  0  0  0  0  0  0  0  0  0
   -8.3960   -0.7118   -0.1518 C   0  0  0  0  0  0  0  0  0  0  0  0
   -8.6633    0.6611   -0.3685 C   0  0  0  0  0  0  0  0  0  0  0  0
  -10.0235    1.1190   -0.4753 C   0  0  0  0  0  0  0  0  0  0  0  0
    5.5029   -1.5417    0.5305 H   0  0  0  0  0  0  0  0  0  0  0  0
    3.7824   -1.6583    1.9956 H   0  0  0  0  0  0  0  0  0  0  0  0
    4.3683   -0.0135    2.3322 H   0  0  0  0  0  0  0  0  0  0  0  0
    3.9337   -2.4320   -0.8041 H   0  0  0  0  0  0  0  0  0  0  0  0
    4.5966   -1.1524   -1.8597 H   0  0  0  0  0  0  0  0  0  0  0  0
    2.4409    0.9681    1.1275 H   0  0  0  0  0  0  0  0  0  0  0  0
    1.8437   -0.3138    2.2112 H   0  0  0  0  0  0  0  0  0  0  0  0
    2.6048    0.2406   -1.5292 H   0  0  0  0  0  0  0  0  0  0  0  0
    2.0702   -1.4262   -1.8687 H   0  0  0  0  0  0  0  0  0  0  0  0
    3.8899    1.7512   -0.5814 H   0  0  0  0  0  0  0  0  0  0  0  0
    4.5312    1.9747    1.0986 H   0  0  0  0  0  0  0  0  0  0  0  0
    7.4208   -0.3463    0.4649 H   0  0  0  0  0  0  0  0  0  0  0  0
    6.6421    0.6681    1.7448 H   0  0  0  0  0  0  0  0  0  0  0  0
    0.0650    1.0762   -0.1847 H   0  0  0  0  0  0  0  0  0  0  0  0
   -2.5362    1.1439   -2.4820 H   0  0  0  0  0  0  0  0  0  0  0  0
   -2.9556    2.7756   -1.8429 H   0  0  0  0  0  0  0  0  0  0  0  0
   -1.2757    2.1804   -1.7197 H   0  0  0  0  0  0  0  0  0  0  0  0
   -2.6057    1.7832    1.8241 H   0  0  0  0  0  0  0  0  0  0  0  0
   -3.0421    3.1475    0.7311 H   0  0  0  0  0  0  0  0  0  0  0  0
   -1.3443    2.5951    0.8266 H   0  0  0  0  0  0  0  0  0  0  0  0
   -1.9286   -3.4216    0.4057 H   0  0  0  0  0  0  0  0  0  0  0  0
    5.9170    2.7839   -1.5425 H   0  0  0  0  0  0  0  0  0  0  0  0
    5.1456    3.8646   -0.3376 H   0  0  0  0  0  0  0  0  0  0  0  0
    8.5559    1.8501    0.7348 H   0  0  0  0  0  0  0  0  0  0  0  0
    7.9135    1.6234   -0.9213 H   0  0  0  0  0  0  0  0  0  0  0  0
   -5.0725    2.8376   -0.6005 H   0  0  0  0  0  0  0  0  0  0  0  0
    0.2680   -4.4028    0.0679 H   0  0  0  0  0  0  0  0  0  0  0  0
    1.7284   -3.3890   -0.0379 H   0  0  0  0  0  0  0  0  0  0  0  0
   -6.8674   -2.2229    0.1179 H   0  0  0  0  0  0  0  0  0  0  0  0
   -7.7859    2.6379   -0.6434 H   0  0  0  0  0  0  0  0  0  0  0  0
    0.0540   -3.9077    2.5075 H   0  0  0  0  0  0  0  0  0  0  0  0
    1.5096   -2.8337    2.4217 H   0  0  0  0  0  0  0  0  0  0  0  0
    1.6714   -4.6029    2.1124 H   0  0  0  0  0  0  0  0  0  0  0  0
   -9.2121   -1.4191   -0.0649 H   0  0  0  0  0  0  0  0  0  0  0  0
  1 26  1  0
  1 27  1  0
  2 25  2  0
  3 10  1  0
  3 11  1  0
  3 13  1  0
  4  7  1  0
  4 16  1  0
  4 17  1  0
  5 15  1  0
  5 30  1  0
  5 62  1  0
  6 36  3  0
  7  8  1  0
  7  9  1  0
  7 37  1  0
  8 10  1  0
  8 38  1  0
  8 39  1  0
  9 11  1  0
  9 40  1  0
  9 41  1  0
 10 42  1  0
 10 43  1  0
 11 44  1  0
 11 45  1  0
 12 14  1  0
 12 15  1  0
 12 22  1  0
 12 23  1  0
 13 18  2  0
 13 20  1  0
 14 18  1  0
 14 19  2  0
 15 21  2  0
 16 26  1  0
 16 46  1  0
 16 47  1  0
 17 27  1  0
 17 48  1  0
 17 49  1  0
 18 50  1  0
 19 24  1  0
 19 25  1  0
 20 24  2  0
 20 29  1  0
 21 25  1  0
 21 28  1  0
 22 51  1  0
 22 52  1  0
 22 53  1  0
 23 54  1  0
 23 55  1  0
 23 56  1  0
 24 57  1  0
 26 58  1  0
 26 59  1  0
 27 60  1  0
 27 61  1  0
 28 30  2  0
 28 31  1  0
 29 33  1  0
 29 63  1  0
 29 64  1  0
 30 32  1  0
 31 34  2  0
 31 65  1  0
 32 35  2  0
 32 66  1  0
 33 67  1  0
 33 68  1  0
 33 69  1  0
 34 35  1  0
 34 70  1  0
 35 36  1  0
M  END
>  <PUBCHEM_COMPOUND_CID>  (1) 
49806720

>  <PUBCHEM_COMPOUND_CANONICALIZED>  (1) 
1

>  <PUBCHEM_CACTVS_COMPLEXITY>  (1) 
867

>  <PUBCHEM_CACTVS_HBOND_ACCEPTOR>  (1) 
5

>  <PUBCHEM_CACTVS_HBOND_DONOR>  (1) 
1

>  <PUBCHEM_CACTVS_ROTATABLE_BOND>  (1) 
3

>  <PUBCHEM_CACTVS_SUBSKEYS>  (1) 
AAADcfB7sAAAAAAAAAAAAAAAAAAAAWAAAAA8eMECAAAAAFjB9AAAHgAQAAAADizhngYywPPJlAC4B6RyRACigCAlAiAImSE4ZNgKoPrA1ZGHIYhgkADYyc8cicCfyAACQAASAACQAASAACQAAAAAAAAAAA==

>  <PUBCHEM_IUPAC_OPENEYE_NAME>  (1) 
9-ethyl-6,6-dimethyl-8-(4-morpholino-1-piperidyl)-11-oxo-5H-benzo[b]carbazole-3-carbonitrile

>  <PUBCHEM_IUPAC_CAS_NAME>  (1) 
9-ethyl-6,6-dimethyl-8-[4-(4-morpholinyl)-1-piperidinyl]-11-oxo-5H-benzo[b]carbazole-3-carbonitrile

>  <PUBCHEM_IUPAC_NAME_MARKUP>  (1) 
9-ethyl-6,6-dimethyl-8-(4-morpholin-4-ylpiperidin-1-yl)-11-oxo-5<I>H</I>-benzo[b]carbazole-3-carbonitrile

>  <PUBCHEM_IUPAC_NAME>  (1) 
9-ethyl-6,6-dimethyl-8-(4-morpholin-4-ylpiperidin-1-yl)-11-oxo-5H-benzo[b]carbazole-3-carbonitrile

>  <PUBCHEM_IUPAC_SYSTEMATIC_NAME>  (1) 
9-ethyl-6,6-dimethyl-8-(4-morpholin-4-ylpiperidin-1-yl)-11-oxidanylidene-5H-benzo[b]carbazole-3-carbonitrile

>  <PUBCHEM_IUPAC_TRADITIONAL_NAME>  (1) 
9-ethyl-11-keto-6,6-dimethyl-8-(4-morpholinopiperidino)-5H-benzo[b]carbazole-3-carbonitrile

>  <PUBCHEM_IUPAC_INCHI>  (1) 
InChI=1S/C30H34N4O2/c1-4-20-16-23-24(17-26(20)34-9-7-21(8-10-34)33-11-13-36-14-12-33)30(2,3)29-27(28(23)35)22-6-5-19(18-31)15-25(22)32-29/h5-6,15-17,21,32H,4,7-14H2,1-3H3

>  <PUBCHEM_IUPAC_INCHIKEY>  (1) 
KDGFLJKFZUIJMX-UHFFFAOYSA-N

>  <PUBCHEM_XLOGP3_AA>  (1) 
5.2

>  <PUBCHEM_EXACT_MASS>  (1) 
482.26817634

>  <PUBCHEM_MOLECULAR_FORMULA>  (1) 
C30H34N4O2

>  <PUBCHEM_MOLECULAR_WEIGHT>  (1) 
482.6

>  <PUBCHEM_SMILES>  (1) 
CCC1=CC2=C(C=C1N3CCC(CC3)N4CCOCC4)C(C5=C(C2=O)C6=C(N5)C=C(C=C6)C#N)(C)C

>  <PUBCHEM_OPENEYE_CAN_SMILES>  (1) 
CCC1=CC2=C(C=C1N3CCC(CC3)N4CCOCC4)C(C5=C(C2=O)C6=C(N5)C=C(C=C6)C#N)(C)C

>  <PUBCHEM_OPENEYE_ISO_SMILES>  (1) 
CCC1=CC2=C(C=C1N3CCC(CC3)N4CCOCC4)C(C5=C(C2=O)C6=C(N5)C=C(C=C6)C#N)(C)C

>  <PUBCHEM_CACTVS_TPSA>  (1) 
72.4

>  <PUBCHEM_MONOISOTOPIC_WEIGHT>  (1) 
482.26817634

>  <PUBCHEM_TOTAL_CHARGE>  (1) 
0

>  <PUBCHEM_HEAVY_ATOM_COUNT>  (1) 
36

>  <PUBCHEM_ATOM_DEF_STEREO_COUNT>  (1) 
0

>  <PUBCHEM_ATOM_UDEF_STEREO_COUNT>  (1) 
0

>  <PUBCHEM_BOND_DEF_STEREO_COUNT>  (1) 
0

>  <PUBCHEM_BOND_UDEF_STEREO_COUNT>  (1) 
0

>  <PUBCHEM_ISOTOPIC_ATOM_COUNT>  (1) 
0

>  <PUBCHEM_COMPONENT_COUNT>  (1) 
1

>  <PUBCHEM_CACTVS_TAUTO_COUNT>  (1) 
-1

>  <PUBCHEM_COORDINATE_TYPE>  (1) 
1
5
255

>  <PUBCHEM_BONDANNOTATIONS>  (1) 
13  18  8
13  20  8
14  18  8
14  19  8
15  21  8
19  24  8
20  24  8
21  28  8
28  30  8
28  31  8
30  32  8
31  34  8
32  35  8
34  35  8
5  15  8
5  30  8

$$$$
