57379345
     RDKit          3D

 74 77  0  0  0  0  0  0  0  0999 V2000
    3.5045    3.3456   -3.2533 Cl  0  0  0  0  0  0  0  0  0  0  0  0
    6.6861    0.8175    0.1280 S   0  0  0  0  0  0  0  0  0  0  0  0
   -2.3204   -1.8557   -0.3720 O   0  0  0  0  0  0  0  0  0  0  0  0
    5.6807    1.7249    0.7815 O   0  0  0  0  0  0  0  0  0  0  0  0
    7.2749    1.5159   -1.0666 O   0  0  0  0  0  0  0  0  0  0  0  0
   -7.1915   -0.4799    0.0101 N   0  0  0  0  0  0  0  0  0  0  0  0
   -0.2358   -0.0410   -0.0979 N   0  0  0  0  0  0  0  0  0  0  0  0
    4.2435    0.7387   -1.7352 N   0  0  0  0  0  0  0  0  0  0  0  0
    1.9751    0.4196   -0.9469 N   0  0  0  0  0  0  0  0  0  0  0  0
    0.2382    1.9177   -1.4549 N   0  0  0  0  0  0  0  0  0  0  0  0
   -5.6402    1.4739    1.3733 C   0  0  0  0  0  0  0  0  0  0  0  0
   -6.4255    1.9308    0.1272 C   0  0  0  0  0  0  0  0  0  0  0  0
   -6.4029    0.3813    2.1766 C   0  0  0  0  0  0  0  0  0  0  0  0
   -6.9134    0.7552   -0.7475 C   0  0  0  0  0  0  0  0  0  0  0  0
   -7.5830   -0.2172    1.3970 C   0  0  0  0  0  0  0  0  0  0  0  0
   -4.2018    1.0893    1.0047 C   0  0  0  0  0  0  0  0  0  0  0  0
   -3.1381    2.0284    1.0883 C   0  0  0  0  0  0  0  0  0  0  0  0
   -3.9233   -0.1976    0.4996 C   0  0  0  0  0  0  0  0  0  0  0  0
   -2.6204   -0.5768    0.1308 C   0  0  0  0  0  0  0  0  0  0  0  0
   -1.8388    1.6381    0.7280 C   0  0  0  0  0  0  0  0  0  0  0  0
   -1.5763    0.3510    0.2426 C   0  0  0  0  0  0  0  0  0  0  0  0
   -3.3492    3.4384    1.5805 C   0  0  0  0  0  0  0  0  0  0  0  0
   -3.2339   -2.9454   -0.5134 C   0  0  0  0  0  0  0  0  0  0  0  0
    8.0113    0.4905    1.3039 C   0  0  0  0  0  0  0  0  0  0  0  0
    0.6732    0.7900   -0.8322 C   0  0  0  0  0  0  0  0  0  0  0  0
    5.8307   -0.6418   -0.4145 C   0  0  0  0  0  0  0  0  0  0  0  0
   -2.6192   -3.9735   -1.4610 C   0  0  0  0  0  0  0  0  0  0  0  0
   -3.5140   -3.5850    0.8508 C   0  0  0  0  0  0  0  0  0  0  0  0
    4.6938   -0.5387   -1.2535 C   0  0  0  0  0  0  0  0  0  0  0  0
    8.3693    1.7655    2.0735 C   0  0  0  0  0  0  0  0  0  0  0  0
    9.2514   -0.0546    0.5856 C   0  0  0  0  0  0  0  0  0  0  0  0
    6.2347   -1.9123    0.0351 C   0  0  0  0  0  0  0  0  0  0  0  0
    2.8686    1.1554   -1.6639 C   0  0  0  0  0  0  0  0  0  0  0  0
    4.0145   -1.7050   -1.6464 C   0  0  0  0  0  0  0  0  0  0  0  0
    5.5439   -3.0598   -0.3591 C   0  0  0  0  0  0  0  0  0  0  0  0
    4.4375   -2.9566   -1.2004 C   0  0  0  0  0  0  0  0  0  0  0  0
    2.4310    2.3318   -2.2980 C   0  0  0  0  0  0  0  0  0  0  0  0
    1.0876    2.6912   -2.1768 C   0  0  0  0  0  0  0  0  0  0  0  0
   -5.6062    2.3500    2.0530 H   0  0  0  0  0  0  0  0  0  0  0  0
   -7.3146    2.5074    0.4665 H   0  0  0  0  0  0  0  0  0  0  0  0
   -5.8120    2.6259   -0.4869 H   0  0  0  0  0  0  0  0  0  0  0  0
   -5.7191   -0.4336    2.4984 H   0  0  0  0  0  0  0  0  0  0  0  0
   -6.8078    0.8229    3.1141 H   0  0  0  0  0  0  0  0  0  0  0  0
   -7.8224    1.0757   -1.3040 H   0  0  0  0  0  0  0  0  0  0  0  0
   -6.1305    0.5261   -1.5012 H   0  0  0  0  0  0  0  0  0  0  0  0
   -7.8893   -1.1690    1.8821 H   0  0  0  0  0  0  0  0  0  0  0  0
   -8.4570    0.4722    1.4272 H   0  0  0  0  0  0  0  0  0  0  0  0
   -7.9749   -0.9894   -0.4617 H   0  0  0  0  0  0  0  0  0  0  0  0
   -4.7259   -0.9061    0.3983 H   0  0  0  0  0  0  0  0  0  0  0  0
   -1.0192    2.3372    0.8414 H   0  0  0  0  0  0  0  0  0  0  0  0
   -4.1745    3.9227    1.0179 H   0  0  0  0  0  0  0  0  0  0  0  0
   -3.5886    3.4252    2.6644 H   0  0  0  0  0  0  0  0  0  0  0  0
   -2.4428    4.0652    1.4378 H   0  0  0  0  0  0  0  0  0  0  0  0
    0.0717   -1.0141    0.1273 H   0  0  0  0  0  0  0  0  0  0  0  0
   -4.1835   -2.5962   -0.9738 H   0  0  0  0  0  0  0  0  0  0  0  0
    7.6579   -0.2609    2.0416 H   0  0  0  0  0  0  0  0  0  0  0  0
   -2.4262   -3.5022   -2.4485 H   0  0  0  0  0  0  0  0  0  0  0  0
   -1.6557   -4.3519   -1.0552 H   0  0  0  0  0  0  0  0  0  0  0  0
   -3.3137   -4.8271   -1.6110 H   0  0  0  0  0  0  0  0  0  0  0  0
   -4.2008   -4.4493    0.7344 H   0  0  0  0  0  0  0  0  0  0  0  0
   -2.5679   -3.9351    1.3151 H   0  0  0  0  0  0  0  0  0  0  0  0
   -3.9895   -2.8546    1.5349 H   0  0  0  0  0  0  0  0  0  0  0  0
    9.1973    1.5641    2.7867 H   0  0  0  0  0  0  0  0  0  0  0  0
    8.6852    2.5692    1.3745 H   0  0  0  0  0  0  0  0  0  0  0  0
    7.4949    2.1192    2.6592 H   0  0  0  0  0  0  0  0  0  0  0  0
    9.6931    0.7191   -0.0778 H   0  0  0  0  0  0  0  0  0  0  0  0
    8.9964   -0.9387   -0.0328 H   0  0  0  0  0  0  0  0  0  0  0  0
   10.0157   -0.3626    1.3306 H   0  0  0  0  0  0  0  0  0  0  0  0
    7.0769   -2.0315    0.6987 H   0  0  0  0  0  0  0  0  0  0  0  0
    4.9600    1.4107   -2.0848 H   0  0  0  0  0  0  0  0  0  0  0  0
    3.1617   -1.6440   -2.3109 H   0  0  0  0  0  0  0  0  0  0  0  0
    5.8666   -4.0327   -0.0091 H   0  0  0  0  0  0  0  0  0  0  0  0
    3.9070   -3.8484   -1.5085 H   0  0  0  0  0  0  0  0  0  0  0  0
    0.7148    3.5846   -2.6603 H   0  0  0  0  0  0  0  0  0  0  0  0
  1 37  1  0
  2  4  2  0
  2  5  2  0
  2 24  1  0
  2 26  1  0
  3 19  1  0
  3 23  1  0
  6 14  1  0
  6 15  1  0
  6 48  1  0
  7 21  1  0
  7 25  1  0
  7 54  1  0
  8 29  1  0
  8 33  1  0
  8 70  1  0
  9 25  2  0
  9 33  1  0
 10 25  1  0
 10 38  2  0
 11 12  1  0
 11 13  1  0
 11 16  1  0
 11 39  1  0
 12 14  1  0
 12 40  1  0
 12 41  1  0
 13 15  1  0
 13 42  1  0
 13 43  1  0
 14 44  1  0
 14 45  1  0
 15 46  1  0
 15 47  1  0
 16 17  2  0
 16 18  1  0
 17 20  1  0
 17 22  1  0
 18 19  2  0
 18 49  1  0
 19 21  1  0
 20 21  2  0
 20 50  1  0
 22 51  1  0
 22 52  1  0
 22 53  1  0
 23 27  1  0
 23 28  1  0
 23 55  1  0
 24 30  1  0
 24 31  1  0
 24 56  1  0
 26 29  2  0
 26 32  1  0
 27 57  1  0
 27 58  1  0
 27 59  1  0
 28 60  1  0
 28 61  1  0
 28 62  1  0
 29 34  1  0
 30 63  1  0
 30 64  1  0
 30 65  1  0
 31 66  1  0
 31 67  1  0
 31 68  1  0
 32 35  2  0
 32 69  1  0
 33 37  2  0
 34 36  2  0
 34 71  1  0
 35 36  1  0
 35 72  1  0
 36 73  1  0
 37 38  1  0
 38 74  1  0
M  END
>  <PUBCHEM_COMPOUND_CID>  (1) 
57379345

>  <PUBCHEM_COMPOUND_CANONICALIZED>  (1) 
1

>  <PUBCHEM_CACTVS_COMPLEXITY>  (1) 
835

>  <PUBCHEM_CACTVS_HBOND_ACCEPTOR>  (1) 
8

>  <PUBCHEM_CACTVS_HBOND_DONOR>  (1) 
3

>  <PUBCHEM_CACTVS_ROTATABLE_BOND>  (1) 
9

>  <PUBCHEM_CACTVS_SUBSKEYS>  (1) 
AAADcfB7sABEAAAAAAAAAAAAAAAAAAAAAAA8eIEAAAAAAAAB0AAAHgYQAAAADR7l2ia/95bIFAqgAjZnZHDCiCkxK7AJ2LwvbJiOLuLk+dvHPCjs0BP46CeQwPAOqAABQAAQEQBQAAKAACAiAAAAAAAAAA==

>  <PUBCHEM_IUPAC_OPENEYE_NAME>  (1) 
5-chloro-N2-[2-isopropoxy-5-methyl-4-(4-piperidyl)phenyl]-N4-(2-isopropylsulfonylphenyl)pyrimidine-2,4-diamine

>  <PUBCHEM_IUPAC_CAS_NAME>  (1) 
5-chloro-N2-[5-methyl-4-(4-piperidinyl)-2-propan-2-yloxyphenyl]-N4-(2-propan-2-ylsulfonylphenyl)pyrimidine-2,4-diamine

>  <PUBCHEM_IUPAC_NAME_MARKUP>  (1) 
5-chloro-2-<I>N</I>-(5-methyl-4-piperidin-4-yl-2-propan-2-yloxyphenyl)-4-<I>N</I>-(2-propan-2-ylsulfonylphenyl)pyrimidine-2,4-diamine

>  <PUBCHEM_IUPAC_NAME>  (1) 
5-chloro-2-N-(5-methyl-4-piperidin-4-yl-2-propan-2-yloxyphenyl)-4-N-(2-propan-2-ylsulfonylphenyl)pyrimidine-2,4-diamine

>  <PUBCHEM_IUPAC_SYSTEMATIC_NAME>  (1) 
5-chloranyl-N2-(5-methyl-4-piperidin-4-yl-2-propan-2-yloxy-phenyl)-N4-(2-propan-2-ylsulfonylphenyl)pyrimidine-2,4-diamine

>  <PUBCHEM_IUPAC_TRADITIONAL_NAME>  (1) 
[5-chloro-2-[2-isopropoxy-5-methyl-4-(4-piperidyl)anilino]pyrimidin-4-yl]-(2-isopropylsulfonylphenyl)amine

>  <PUBCHEM_IUPAC_INCHI>  (1) 
InChI=1S/C28H36ClN5O3S/c1-17(2)37-25-15-21(20-10-12-30-13-11-20)19(5)14-24(25)33-28-31-16-22(29)27(34-28)32-23-8-6-7-9-26(23)38(35,36)18(3)4/h6-9,14-18,20,30H,10-13H2,1-5H3,(H2,31,32,33,34)

>  <PUBCHEM_IUPAC_INCHIKEY>  (1) 
VERWOWGGCGHDQE-UHFFFAOYSA-N

>  <PUBCHEM_XLOGP3_AA>  (1) 
6.4

>  <PUBCHEM_EXACT_MASS>  (1) 
557.2227389

>  <PUBCHEM_MOLECULAR_FORMULA>  (1) 
C28H36ClN5O3S

>  <PUBCHEM_MOLECULAR_WEIGHT>  (1) 
558.1

>  <PUBCHEM_SMILES>  (1) 
CC1=CC(=C(C=C1C2CCNCC2)OC(C)C)NC3=NC=C(C(=N3)NC4=CC=CC=C4S(=O)(=O)C(C)C)Cl

>  <PUBCHEM_OPENEYE_CAN_SMILES>  (1) 
CC1=CC(=C(C=C1C2CCNCC2)OC(C)C)NC3=NC=C(C(=N3)NC4=CC=CC=C4S(=O)(=O)C(C)C)Cl

>  <PUBCHEM_OPENEYE_ISO_SMILES>  (1) 
CC1=CC(=C(C=C1C2CCNCC2)OC(C)C)NC3=NC=C(C(=N3)NC4=CC=CC=C4S(=O)(=O)C(C)C)Cl

>  <PUBCHEM_CACTVS_TPSA>  (1) 
114

>  <PUBCHEM_MONOISOTOPIC_WEIGHT>  (1) 
557.2227389

>  <PUBCHEM_TOTAL_CHARGE>  (1) 
0

>  <PUBCHEM_HEAVY_ATOM_COUNT>  (1) 
38

>  <PUBCHEM_ATOM_DEF_STEREO_COUNT>  (1) 
0

>  <PUBCHEM_ATOM_UDEF_STEREO_COUNT>  (1) 
0

>  <PUBCHEM_BOND_DEF_STEREO_COUNT>  (1) 
0

>  <PUBCHEM_BOND_UDEF_STEREO_COUNT>  (1) 
0

>  <PUBCHEM_ISOTOPIC_ATOM_COUNT>  (1) 
0

>  <PUBCHEM_COMPONENT_COUNT>  (1) 
1

>  <PUBCHEM_CACTVS_TAUTO_COUNT>  (1) 
-1

>  <PUBCHEM_COORDINATE_TYPE>  (1) 
1
5
255

>  <PUBCHEM_BONDANNOTATIONS>  (1) 
10  25  8
10  38  8
16  17  8
16  18  8
17  20  8
18  19  8
19  21  8
20  21  8
26  29  8
26  32  8
29  34  8
32  35  8
33  37  8
34  36  8
35  36  8
37  38  8
9  25  8
9  33  8

$$$$
