11626560
     RDKit          3D

 52 55  0  0  1  0  0  0  0  0999 V2000
   -6.9421   -0.8031    1.5438 Cl  0  0  0  0  0  0  0  0  0  0  0  0
   -4.2965    1.2799   -2.9266 Cl  0  0  0  0  0  0  0  0  0  0  0  0
   -9.2274    0.4886    0.2542 F   0  0  0  0  0  0  0  0  0  0  0  0
   -3.3008    0.7122   -0.2746 O   0  0  0  0  0  0  0  0  0  0  0  0
    3.6927   -0.4715   -0.1462 N   0  0  0  0  0  0  0  0  0  0  0  0
    7.8061   -0.7884   -1.1122 N   0  0  0  0  0  0  0  0  0  0  0  0
    3.0786   -0.9648   -1.2110 N   0  0  0  0  0  0  0  0  0  0  0  0
   -1.0705    0.9749    2.6377 N   0  0  0  0  0  0  0  0  0  0  0  0
   -3.4172    1.4894    2.4984 N   0  0  0  0  0  0  0  0  0  0  0  0
    5.1467   -0.4329    0.0247 C   0  0  0  0  0  0  0  0  0  0  0  0
    5.7592   -1.8251   -0.2044 C   0  0  0  0  0  0  0  0  0  0  0  0
    5.7665    0.5904   -0.9394 C   0  0  0  0  0  0  0  0  0  0  0  0
    7.2886   -1.7514   -0.1288 C   0  0  0  0  0  0  0  0  0  0  0  0
    7.2964    0.5628   -0.8345 C   0  0  0  0  0  0  0  0  0  0  0  0
    2.7896    0.0497    0.7044 C   0  0  0  0  0  0  0  0  0  0  0  0
    1.5312   -0.1315    0.1636 C   0  0  0  0  0  0  0  0  0  0  0  0
    1.7560   -0.7740   -1.0453 C   0  0  0  0  0  0  0  0  0  0  0  0
    0.2304    0.2729    0.7503 C   0  0  0  0  0  0  0  0  0  0  0  0
   -0.9304    0.3338   -0.0391 C   0  0  0  0  0  0  0  0  0  0  0  0
    0.1250    0.6019    2.1106 C   0  0  0  0  0  0  0  0  0  0  0  0
   -2.1565    0.6886    0.5284 C   0  0  0  0  0  0  0  0  0  0  0  0
   -4.3491   -0.2507   -0.1476 C   0  0  1  0  0  0  0  0  0  0  0  0
   -2.2060    1.0297    1.8916 C   0  0  0  0  0  0  0  0  0  0  0  0
   -5.6595    0.3230   -0.6715 C   0  0  0  0  0  0  0  0  0  0  0  0
   -3.9816   -1.5400   -0.8881 C   0  0  0  0  0  0  0  0  0  0  0  0
   -6.8699    0.1261    0.0460 C   0  0  0  0  0  0  0  0  0  0  0  0
   -5.7107    1.0328   -1.9019 C   0  0  0  0  0  0  0  0  0  0  0  0
   -8.0700    0.6657   -0.4343 C   0  0  0  0  0  0  0  0  0  0  0  0
   -6.9232    1.5596   -2.3601 C   0  0  0  0  0  0  0  0  0  0  0  0
   -8.0931    1.3840   -1.6272 C   0  0  0  0  0  0  0  0  0  0  0  0
    5.3834   -0.1205    1.0681 H   0  0  0  0  0  0  0  0  0  0  0  0
    5.4652   -2.2154   -1.2041 H   0  0  0  0  0  0  0  0  0  0  0  0
    5.3827   -2.5293    0.5696 H   0  0  0  0  0  0  0  0  0  0  0  0
    5.3967    1.6095   -0.6901 H   0  0  0  0  0  0  0  0  0  0  0  0
    5.4672    0.3572   -1.9855 H   0  0  0  0  0  0  0  0  0  0  0  0
    7.6079   -1.4707    0.9004 H   0  0  0  0  0  0  0  0  0  0  0  0
    7.7064   -2.7574   -0.3514 H   0  0  0  0  0  0  0  0  0  0  0  0
    7.6175    0.9029    0.1768 H   0  0  0  0  0  0  0  0  0  0  0  0
    7.7188    1.2709   -1.5801 H   0  0  0  0  0  0  0  0  0  0  0  0
    8.8483   -0.7619   -1.0142 H   0  0  0  0  0  0  0  0  0  0  0  0
    3.0362    0.5424    1.6356 H   0  0  0  0  0  0  0  0  0  0  0  0
    1.0097   -1.0928   -1.7595 H   0  0  0  0  0  0  0  0  0  0  0  0
   -0.8953    0.1004   -1.0928 H   0  0  0  0  0  0  0  0  0  0  0  0
    0.9888    0.5670    2.7591 H   0  0  0  0  0  0  0  0  0  0  0  0
   -4.4426   -0.5116    0.9259 H   0  0  0  0  0  0  0  0  0  0  0  0
   -4.7386   -2.3270   -0.6859 H   0  0  0  0  0  0  0  0  0  0  0  0
   -2.9963   -1.9095   -0.5316 H   0  0  0  0  0  0  0  0  0  0  0  0
   -3.9190   -1.3747   -1.9823 H   0  0  0  0  0  0  0  0  0  0  0  0
   -6.9612    2.1065   -3.2946 H   0  0  0  0  0  0  0  0  0  0  0  0
   -4.2788    1.6707    1.9369 H   0  0  0  0  0  0  0  0  0  0  0  0
   -3.4373    1.7112    3.5185 H   0  0  0  0  0  0  0  0  0  0  0  0
   -9.0222    1.7995   -1.9912 H   0  0  0  0  0  0  0  0  0  0  0  0
  1 26  1  0
  2 27  1  0
  3 28  1  0
  4 21  1  0
 22  4  1  0
  5  7  1  0
  5 10  1  0
  5 15  1  0
  6 13  1  0
  6 14  1  0
  6 40  1  0
  7 17  2  0
  8 20  2  0
  8 23  1  0
  9 23  1  0
  9 50  1  0
  9 51  1  0
 10 11  1  0
 10 12  1  0
 10 31  1  0
 11 13  1  0
 11 32  1  0
 11 33  1  0
 12 14  1  0
 12 34  1  0
 12 35  1  0
 13 36  1  0
 13 37  1  0
 14 38  1  0
 14 39  1  0
 15 16  2  0
 15 41  1  0
 16 17  1  0
 16 18  1  0
 17 42  1  0
 18 19  2  0
 18 20  1  0
 19 21  1  0
 19 43  1  0
 20 44  1  0
 21 23  2  0
 22 24  1  0
 22 25  1  0
 22 45  1  1
 24 26  2  0
 24 27  1  0
 25 46  1  0
 25 47  1  0
 25 48  1  0
 26 28  1  0
 27 29  2  0
 28 30  2  0
 29 30  1  0
 29 49  1  0
 30 52  1  0
M  END
>  <PUBCHEM_COMPOUND_CID>  (1) 
11626560

>  <PUBCHEM_COMPOUND_CANONICALIZED>  (1) 
1

>  <PUBCHEM_CACTVS_COMPLEXITY>  (1) 
557

>  <PUBCHEM_CACTVS_HBOND_ACCEPTOR>  (1) 
6

>  <PUBCHEM_CACTVS_HBOND_DONOR>  (1) 
2

>  <PUBCHEM_CACTVS_ROTATABLE_BOND>  (1) 
5

>  <PUBCHEM_CACTVS_SUBSKEYS>  (1) 
AAADceB7oQAGAAAAAAAAAAAAAAAAAWAAAAA8WIAAAAAAAAAB8AAAHwIYAAAADD7hmi4/tpLIFACiAjJnZASSjCkx5SAY2KAvTpiOJuLF89uHvCjk2BPY6Cew0KIOgAAAAACBAAAAAAAAAQIAAAAAAAAAAA==

>  <PUBCHEM_IUPAC_OPENEYE_NAME>  (1) 
3-[(1R)-1-(2,6-dichloro-3-fluoro-phenyl)ethoxy]-5-[1-(4-piperidyl)pyrazol-4-yl]pyridin-2-amine

>  <PUBCHEM_IUPAC_CAS_NAME>  (1) 
3-[(1R)-1-(2,6-dichloro-3-fluorophenyl)ethoxy]-5-[1-(4-piperidinyl)-4-pyrazolyl]-2-pyridinamine

>  <PUBCHEM_IUPAC_NAME_MARKUP>  (1) 
3-[(1<I>R</I>)-1-(2,6-dichloro-3-fluorophenyl)ethoxy]-5-(1-piperidin-4-ylpyrazol-4-yl)pyridin-2-amine

>  <PUBCHEM_IUPAC_NAME>  (1) 
3-[(1R)-1-(2,6-dichloro-3-fluorophenyl)ethoxy]-5-(1-piperidin-4-ylpyrazol-4-yl)pyridin-2-amine

>  <PUBCHEM_IUPAC_SYSTEMATIC_NAME>  (1) 
3-[(1R)-1-[2,6-bis(chloranyl)-3-fluoranyl-phenyl]ethoxy]-5-(1-piperidin-4-ylpyrazol-4-yl)pyridin-2-amine

>  <PUBCHEM_IUPAC_TRADITIONAL_NAME>  (1) 
[3-[(1R)-1-(2,6-dichloro-3-fluoro-phenyl)ethoxy]-5-[1-(4-piperidyl)pyrazol-4-yl]-2-pyridyl]amine

>  <PUBCHEM_IUPAC_INCHI>  (1) 
InChI=1S/C21H22Cl2FN5O/c1-12(19-16(22)2-3-17(24)20(19)23)30-18-8-13(9-27-21(18)25)14-10-28-29(11-14)15-4-6-26-7-5-15/h2-3,8-12,15,26H,4-7H2,1H3,(H2,25,27)/t12-/m1/s1

>  <PUBCHEM_IUPAC_INCHIKEY>  (1) 
KTEIFNKAUNYNJU-GFCCVEGCSA-N

>  <PUBCHEM_XLOGP3_AA>  (1) 
3.7

>  <PUBCHEM_EXACT_MASS>  (1) 
449.1185439

>  <PUBCHEM_MOLECULAR_FORMULA>  (1) 
C21H22Cl2FN5O

>  <PUBCHEM_MOLECULAR_WEIGHT>  (1) 
450.3

>  <PUBCHEM_SMILES>  (1) 
C[C@H](C1=C(C=CC(=C1Cl)F)Cl)OC2=C(N=CC(=C2)C3=CN(N=C3)C4CCNCC4)N

>  <PUBCHEM_OPENEYE_CAN_SMILES>  (1) 
CC(C1=C(C=CC(=C1Cl)F)Cl)OC2=C(N=CC(=C2)C3=CN(N=C3)C4CCNCC4)N

>  <PUBCHEM_OPENEYE_ISO_SMILES>  (1) 
C[C@H](C1=C(C=CC(=C1Cl)F)Cl)OC2=C(N=CC(=C2)C3=CN(N=C3)C4CCNCC4)N

>  <PUBCHEM_CACTVS_TPSA>  (1) 
78

>  <PUBCHEM_MONOISOTOPIC_WEIGHT>  (1) 
449.1185439

>  <PUBCHEM_TOTAL_CHARGE>  (1) 
0

>  <PUBCHEM_HEAVY_ATOM_COUNT>  (1) 
30

>  <PUBCHEM_ATOM_DEF_STEREO_COUNT>  (1) 
1

>  <PUBCHEM_ATOM_UDEF_STEREO_COUNT>  (1) 
0

>  <PUBCHEM_BOND_DEF_STEREO_COUNT>  (1) 
0

>  <PUBCHEM_BOND_UDEF_STEREO_COUNT>  (1) 
0

>  <PUBCHEM_ISOTOPIC_ATOM_COUNT>  (1) 
0

>  <PUBCHEM_COMPONENT_COUNT>  (1) 
1

>  <PUBCHEM_CACTVS_TAUTO_COUNT>  (1) 
-1

>  <PUBCHEM_COORDINATE_TYPE>  (1) 
1
5
255

>  <PUBCHEM_BONDANNOTATIONS>  (1) 
15  16  8
16  17  8
18  19  8
18  20  8
19  21  8
21  23  8
24  26  8
24  27  8
26  28  8
27  29  8
28  30  8
29  30  8
22  4  6
5  15  8
5  7  8
7  17  8
8  20  8
8  23  8

$$$$
